07_CYME/Flay_ret_16271201.sxst_DSS/Elements/Lines.dss
New Line.258425613 Phases= 3 Bus1=258425610.1.2.3 Bus2=258425615.1.2.3 Length=116.70 units=m  Spacing=8'-ARM-STANDARD-3PH wires=['1/0-ACSR-B-6X1' '1/0-ACSR-B-6X1' '1/0-ACSR-B-6X1' '1/0-ACSR-B-6X1']
New Line.263960232 Bus1=263960229.2     Bus2=261243331.2     LineCode=1/0-AL-TRXLPELCJ-15KV Phases= 1 Length=425.10 units=m enable=yes
New Line.263395231 Phases= 3 Bus1=263395228.1.2.3 Bus2=258425192.1.2.3 Length=108.60 units=m  Spacing=8'-ARM-NON-CENTER-POST-3PH wires=['1/0-ACSR-B-6X1' '1/0-ACSR-B-6X1' '1/0-ACSR-B-6X1' '1/0-ACSR-B-6X1']
New Line.615922970 Phases= 1 Bus1=615922930.3     Bus2=615922967.3     Length=21.01  units=m  Spacing=VERTICAL-1-PH-60-1PH wires=['2-ACSR-B-6X1' '2-ACSR-B-6X1']
New Line.263399326 Bus1=258443856.3     Bus2=263399328.3     LineCode=1/0-AL-HMWPECN-15KV Phases= 1 Length=1.52   units=m enable=yes
New Line.263395474 Phases= 1 Bus1=263395471.3     Bus2=258426151.3     Length=73.15  units=m  Spacing=VERTICAL-1-PH-60-1PH wires=['2-ACSR-B-6X1' '2-ACSR-B-6X1']
New Line.264357164 Bus1=260662931.2     Bus2=260662911.2     LineCode=1/0-AL-TRXLPELCJ-15KV Phases= 1 Length=73.05  units=m enable=no
New Line.258425870 Phases= 1 Bus1=258425871.1     Bus2=258425872.1     Length=58.98  units=m  Spacing=VERTICAL-1-PH-60-1PH wires=['2-ACSR-B-6X1' '2-ACSR-B-6X1']
New Line.620861421 Phases= 3 Bus1=620861418.1.2.3 Bus2=258425157.1.2.3 Length=45.91  units=m  Spacing=8'-ARM-STANDARD-3PH wires=['1/0-ACSR-B-6X1' '1/0-ACSR-B-6X1' '1/0-ACSR-B-6X1' '1/0-ACSR-B-6X1']
New Line.258443727 Phases= 1 Bus1=258443724.1     Bus2=258443729.1     Length=41.88  units=m  Spacing=VERTICAL-1-PH-60-1PH wires=['2-ACSR-B-6X1' '2-ACSR-B-6X1']
New Line.263391376 Phases= 1 Bus1=263391373.3     Bus2=258405948.3     Length=39.72  units=m  Spacing=VERTICAL-1-PH-60-1PH wires=['2-ACSR-B-6X1' '2-ACSR-B-6X1']
New Line.384399747 Phases= 3 Bus1=258406505.1.2.3 Bus2=384399746.1.2.3 Length=101.70 units=m  Spacing=8'-ARM-NON-CENTER-POST-3PH wires=['2-ACSR-B-6X1' '2-ACSR-B-6X1' '2-ACSR-B-6X1' '2-ACSR-B-6X1']
New Line.258425346 Phases= 1 Bus1=258425333.2     Bus2=258425348.2     Length=111.50 units=m  Spacing=VERTICAL-1-PH-60-1PH wires=['2-ACSR-B-6X1' '2-ACSR-B-6X1']
New Line.263395379 Phases= 1 Bus1=258425640.1     Bus2=263395381.1     Length=1.52   units=m  Spacing=VERTICAL-1-PH-60-1PH wires=['2-ACSR-B-6X1' '2-ACSR-B-6X1']
New Line.258425718 Phases= 3 Bus1=258425715.1.2.3 Bus2=258425720.1.2.3 Length=122.20 units=m  Spacing=8'-ARM-NON-CENTER-POST-3PH wires=['2-ACSR-B-6X1' '1/0-ACSR-B-6X1' '1/0-ACSR-B-6X1' '2-ACSR-B-6X1']
New Line.259149275 Phases= 1 Bus1=258425427.2     Bus2=259149277.2     Length=100.70 units=m  Spacing=VERTICAL-1-PH-104-1PH wires=['2-ACSR-B-6X1' '2-ACSR-B-6X1']
New Line.258425351 Phases= 1 Bus1=258425348.2     Bus2=258425353.2     Length=144.80 units=m  Spacing=VERTICAL-1-PH-60-1PH wires=['2-ACSR-B-6X1' '2-ACSR-B-6X1']
New Line.263391493 Phases= 1 Bus1=263391490.1     Bus2=258406333.1     Length=25.29  units=m  Spacing=VERTICAL-1-PH-60-1PH wires=['2-ACSR-B-6X1' '2-ACSR-B-6X1']
New Line.263997751 Phases= 1 Bus1=258444077.1     Bus2=263997753.1     Length=1.52   units=m  Spacing=VERTICAL-1-PH-104-1PH wires=['2-ACSR-B-6X1' '2-ACSR-B-6X1']
New Line.258443522 Phases= 3 Bus1=258443519.1.2.3 Bus2=258443524.1.2.3 Length=167.10 units=m  Spacing=8'-ARM-NON-CENTER-POST-3PH wires=['2-ACSR-B-6X1' '2-ACSR-B-6X1' '2-ACSR-B-6X1' '2-ACSR-B-6X1']
New Line.258444152 Phases= 3 Bus1=258444149.1.2.3 Bus2=258444154.1.2.3 Length=63.21  units=m  Spacing=8'-ARM-NON-CENTER-POST-3PH wires=['2-ACSR-B-6X1' '2-ACSR-B-6X1' '2-ACSR-B-6X1' '2-ACSR-B-6X1']
New Line.259998115 Phases= 3 Bus1=258443584.1.2.3 Bus2=258443633.1.2.3 Length=121.30 units=m  Spacing=8'-ARM-NON-CENTER-POST-3PH wires=['2-ACSR-B-6X1' '2-ACSR-B-6X1' '2-ACSR-B-6X1' '2-ACSR-B-6X1']
New Line.259577442 Phases= 3 Bus1=259577439.1.2.3 Bus2=258406032.1.2.3 Length=87.85  units=m  Spacing=8'-ARM-STANDARD-3PH wires=['1/0-ACSR-B-6X1' '1/0-ACSR-B-6X1' '1/0-ACSR-B-6X1' '1/0-ACSR-B-6X1']
New Line.263790336 Phases= 1 Bus1=263790333.1     Bus2=260005788.1     Length=29.09  units=m  Spacing=VERTICAL-1-PH-104-1PH wires=['2-ACSR-B-6X1' '2-ACSR-B-6X1']
New Line.258443492 Phases= 3 Bus1=258443489.1.2.3 Bus2=258443494.1.2.3 Length=116.40 units=m  Spacing=8'-ARM-NON-CENTER-POST-3PH wires=['2-ACSR-B-6X1' '2-ACSR-B-6X1' '2-ACSR-B-6X1' '2-ACSR-B-6X1']
New Line.258425541 Phases= 1 Bus1=258425527.3     Bus2=258425543.3     Length=122.80 units=m  Spacing=VERTICAL-1-PH-60-1PH wires=['2-ACSR-B-6X1' '2-ACSR-B-6X1']
New Line.258406066 Phases= 1 Bus1=258406063.1     Bus2=258406068.1     Length=68.64  units=m  Spacing=VERTICAL-1-PH-60-1PH wires=['2-ACSR-B-6X1' '2-ACSR-B-6X1']
New Line.258405645 Phases= 1 Bus1=699612980.2     Bus2=258405647.2     Length=94.61  units=m  Spacing=VERTICAL-1-PH-60-1PH wires=['2-ACSR-B-6X1' '1/0-ACSR-B-6X1']
New Line.264310935 Bus1=260664706.2     Bus2=260664696.2     LineCode=1/0-AL-HMWPECN-15KV Phases= 1 Length=158.60 units=m enable=no
New Line.258405772 Phases= 3 Bus1=258405759.1.2.3 Bus2=258405774.1.2.3 Length=74.45  units=m  Spacing=HORIZ-LINE-POST-3PH wires=['336-AAC-B-19' '336-AAC-B-19' '336-AAC-B-19' '1/0-ACSR-B-6X1']
New Line.261061101 Bus1=260005788.1     Bus2=261061097.1     LineCode=1/0-AL-TRXLPELCJ-15KV Phases= 1 Length=110.30 units=m enable=yes
New Line.259529043 Phases= 1 Bus1=258406143.1     Bus2=259529045.1     Length=68.51  units=m  Spacing=VERTICAL-1-PH-104-1PH wires=['2-ACSR-B-6X1' '2-ACSR-B-6X1']
New Line.263399362 Phases= 1 Bus1=258444041.3     Bus2=263399364.3     Length=1.52   units=m  Spacing=VERTICAL-1-PH-60-1PH wires=['2-ACSR-B-6X1' '2-ACSR-B-6X1']
New Line.258406416 Phases= 1 Bus1=258406413.3     Bus2=258406418.3     Length=68.24  units=m  Spacing=VERTICAL-1-PH-60-1PH wires=['2-ACSR-B-6X1' '2-ACSR-B-6X1']
New Line.263391506 Bus1=258406338.1     Bus2=263391508.1     LineCode=1/0-AL-HMWPECN-15KV Phases= 1 Length=1.53   units=m enable=yes
New Line.259219718 Phases= 1 Bus1=258443684.2     Bus2=259219720.2     Length=94.08  units=m  Spacing=VERTICAL-1-PH-104-1PH wires=['2-ACSR-B-6X1' '2-ACSR-B-6X1']
New Line.258425476 Phases= 1 Bus1=258425477.3     Bus2=258425478.3     Length=54.76  units=m  Spacing=VERTICAL-1-PH-60-1PH wires=['4-ACSR-B-6X1' '4-ACSR-B-6X1']
New Line.258425521 Phases= 1 Bus1=258425522.3     Bus2=258425523.3     Length=59.93  units=m  Spacing=VERTICAL-1-PH-60-1PH wires=['2-ACSR-B-6X1' '2-ACSR-B-6X1']
New Line.263399218 Bus1=258443524.3     Bus2=263399220.3     LineCode=1/0-AL-HMWPECN-15KV Phases= 1 Length=1.52   units=m enable=yes
New Line.263395447 Phases= 1 Bus1=263395444.1     Bus2=258426024.1     Length=138.70 units=m  Spacing=VERTICAL-1-PH-60-1PH wires=['2-ACSR-B-6X1' '2-ACSR-B-6X1']
New Line.620695966 Phases= 1 Bus1=258426034.1     Bus2=620695968.1     Length=1.51   units=m  Spacing=VERTICAL-1-PH-104-1PH wires=['2-ACSR-B-6X1' '2-ACSR-B-6X1']
New Line.258443370 Phases= 1 Bus1=258443367.3     Bus2=258443372.3     Length=34.71  units=m  Spacing=VERTICAL-1-PH-60-1PH wires=['2-ACSR-B-6X1' '2-ACSR-B-6X1']
New Line.258425185 Phases= 1 Bus1=258425182.1     Bus2=258425187.1     Length=83.96  units=m  Spacing=VERTICAL-1-PH-60-1PH wires=['2-ACSR-B-6X1' '2-ACSR-B-6X1']
New Line.258406226 Phases= 3 Bus1=258406178.1.2.3 Bus2=258406228.1.2.3 Length=53.87  units=m  Spacing=8'-ARM-STANDARD-3PH wires=['1/0-ACSR-B-6X1' '1/0-ACSR-B-6X1' '1/0-ACSR-B-6X1' '1/0-ACSR-B-6X1']
New Line.258425601 Phases= 3 Bus1=258425598.1.2.3 Bus2=258425603.1.2.3 Length=44.62  units=m  Spacing=8'-ARM-STANDARD-3PH wires=['1/0-ACSR-B-6X1' '1/0-ACSR-B-6X1' '1/0-ACSR-B-6X1' '1/0-ACSR-B-6X1']
New Line.258444019 Phases= 1 Bus1=258443816.3     Bus2=258444021.3     Length=63.15  units=m  Spacing=VERTICAL-1-PH-60-1PH wires=['2-ACSR-B-6X1' '2-ACSR-B-6X1']
New Line.258406131 Phases= 1 Bus1=258406123.1     Bus2=258406133.1     Length=143.90 units=m  Spacing=VERTICAL-1-PH-60-1PH wires=['2-ACSR-B-6X1' '2-ACSR-B-6X1']
New Line.263909229 Bus1=259418041.1     Bus2=263909231.1     LineCode=1/0-AL-TRXLPELCJ-15KV Phases= 1 Length=1.53   units=m enable=yes
New Line.259420317 Phases= 3 Bus1=258405687.1.2.3 Bus2=258405691.1.2.3 Length=80.70  units=m  Spacing=HORIZ-LINE-POST-3PH wires=['336-AAC-B-19' '336-AAC-B-19' '336-AAC-B-19' '1/0-ACSR-B-6X1']
New Line.258406151 Phases= 1 Bus1=258406148.1     Bus2=258406153.1     Length=67.99  units=m  Spacing=VERTICAL-1-PH-60-1PH wires=['2-ACSR-B-6X1' '2-ACSR-B-6X1']
New Line.438022633 Phases= 1 Bus1=258406383.3     Bus2=426195252.3     Length=1.51   units=m  Spacing=VERTICAL-1-PH-60-1PH wires=['2-ACSR-B-6X1' '2-ACSR-B-6X1']
New Line.438022626 Phases= 1 Bus1=426195252.3     Bus2=438022625.3     Length=47.51  units=m  Spacing=VERTICAL-1-PH-60-1PH wires=['2-ACSR-B-6X1' '2-ACSR-B-6X1']
New Line.258406316 Phases= 1 Bus1=258406313.1     Bus2=258406318.1     Length=54.66  units=m  Spacing=VERTICAL-1-PH-60-1PH wires=['2-ACSR-B-6X1' '2-ACSR-B-6X1']
New Line.258443552 Phases= 3 Bus1=258443549.1.2.3 Bus2=258443554.1.2.3 Length=52.76  units=m  Spacing=8'-ARM-NON-CENTER-POST-3PH wires=['2-ACSR-B-6X1' '2-ACSR-B-6X1' '2-ACSR-B-6X1' '2-ACSR-B-6X1']
New Line.263399295 Phases= 1 Bus1=263399292.3     Bus2=258443739.3     Length=96.21  units=m  Spacing=VERTICAL-1-PH-60-1PH wires=['2-ACSR-B-6X1' '2-ACSR-B-6X1']
New Line.384331485 Bus1=384331459.3     Bus2=384331487.3     LineCode=1/0-AL-TRXLPELCJ-25KV Phases= 1 Length=1.52   units=m enable=yes
New Line.258425945 Phases= 1 Bus1=258425946.1     Bus2=258425947.1     Length=90.23  units=m  Spacing=VERTICAL-1-PH-60-1PH wires=['2-ACSR-B-6X1' '2-ACSR-B-6X1']
New Line.258425252 Phases= 3 Bus1=258425247.1.2.3 Bus2=258425254.1.2.3 Length=119.80 units=m  Spacing=8'-ARM-NON-CENTER-POST-3PH wires=['1/0-ACSR-B-6X1' '1/0-ACSR-B-6X1' '1/0-ACSR-B-6X1' '2-ACSR-B-6X1']
New Line.258444076 Phases= 3 Bus1=258444077.1.2.3 Bus2=258444078.1.2.3 Length=20.49  units=m  Spacing=8'-ARM-NON-CENTER-POST-3PH wires=['2-ACSR-B-6X1' '2-ACSR-B-6X1' '2-ACSR-B-6X1' '2-ACSR-B-6X1']
New Line.258443747 Phases= 1 Bus1=258443744.3     Bus2=258443749.3     Length=69.76  units=m  Spacing=VERTICAL-1-PH-60-1PH wires=['2-ACSR-B-6X1' '2-ACSR-B-6X1']
New Line.258443869 Phases= 1 Bus1=258443870.3     Bus2=258443871.3     Length=22.93  units=m  Spacing=VERTICAL-1-PH-60-1PH wires=['1/0-ACSR-B-6X1' '1/0-ACSR-B-6X1']
New Line.260664689 Bus1=260664686.2     Bus2=260664691.2     LineCode=1/0-AL-HMWPECN-15KV Phases= 1 Length=132.30 units=m enable=yes
New Line.258425506 Phases= 1 Bus1=258425503.3     Bus2=258425508.3     Length=115.50 units=m  Spacing=VERTICAL-1-PH-60-1PH wires=['2-ACSR-B-6X1' '2-ACSR-B-6X1']
New Line.259228579 Phases= 1 Bus1=258426111.3     Bus2=259228581.3     Length=114.70 units=m  Spacing=VERTICAL-1-PH-104-1PH wires=['2-ACSR-B-6X1' '2-ACSR-B-6X1']
New Line.258444009 Phases= 1 Bus1=258444001.3     Bus2=258444011.3     Length=32.35  units=m  Spacing=VERTICAL-1-PH-60-1PH wires=['1/0-ACSR-B-6X1' '1/0-ACSR-B-6X1']
New Line.258406056 Phases= 1 Bus1=258406053.1     Bus2=258406058.1     Length=304.20 units=m  Spacing=VERTICAL-1-PH-60-1PH wires=['2-ACSR-B-6X1' '2-ACSR-B-6X1']
New Line.290683469 Phases= 3 Bus1=258405593.1.2.3 Bus2=290683468.1.2.3 Length=73.78  units=m  Spacing=HORIZ-LINE-POST-3PH wires=['336-ACSR-B-18X1' '336-ACSR-B-18X1' '336-ACSR-B-18X1' '1/0-ACSR-B-6X1']
New Line.261140527 Bus1=259374992.2     Bus2=261140529.2     LineCode=1/0-AL-TRXLPELCJ-15KV Phases= 1 Length=253.70 units=m enable=yes
New Line.260664749 Bus1=260664746.1     Bus2=264245362.1     LineCode=1/0-AL-TRXLPELCJ-15KV Phases= 1 Length=218.30 units=m enable=yes
New Line.263395186 Phases= 3 Bus1=263395183.1.2.3 Bus2=258424969.1.2.3 Length=48.67  units=m  Spacing=8'-ARM-NON-CENTER-POST-3PH wires=['2-ACSR-B-6X1' '2-ACSR-B-6X1' '2-ACSR-B-6X1' '2-ACSR-B-6X1']
New Line.258406538 Phases= 1 Bus1=258406535.3     Bus2=258406540.3     Length=369.60 units=m  Spacing=VERTICAL-1-PH-60-1PH wires=['2-ACSR-B-6X1' '2-ACSR-B-6X1']
New Line.263399236 Bus1=258443539.1     Bus2=263399238.1     LineCode=1/0-AL-TRXLPELCJ-15KV Phases= 1 Length=1.53   units=m enable=yes
New Line.259596212 Phases= 3 Bus1=258444208.1.2.3 Bus2=259596203.1.2.3 Length=54.90  units=m  Spacing=8'-ARM-STANDARD-3PH wires=['2-ACSR-B-6X1' '2-ACSR-B-6X1' '2-ACSR-B-6X1' '2-ACSR-B-6X1']
New Line.617401565 Bus1=258406032.2     Bus2=617401567.2     LineCode=1/0-AL-TRXLPELCJ-25KV Phases= 1 Length=1.52   units=m enable=yes
New Line.260664704 Bus1=260664701.2     Bus2=260664706.2     LineCode=1/0-AL-HMWPECN-15KV Phases= 1 Length=170.60 units=m enable=yes
New Line.263399227 Phases= 1 Bus1=258443529.1     Bus2=263399229.1     Length=1.52   units=m  Spacing=VERTICAL-1-PH-60-1PH wires=['2-ACSR-B-6X1' '2-ACSR-B-6X1']
New Line.258425997 Phases= 3 Bus1=258425994.1.2.3 Bus2=258425999.1.2.3 Length=53.81  units=m  Spacing=8'-ARM-NON-CENTER-POST-3PH wires=['2-ACSR-B-6X1' '2-ACSR-B-6X1' '2-ACSR-B-6X1' '2-ACSR-B-6X1']
New Line.258443944 Phases= 1 Bus1=258443941.3     Bus2=258443946.3     Length=139.50 units=m  Spacing=VERTICAL-1-PH-60-1PH wires=['1/0-ACSR-B-6X1' '1/0-ACSR-B-6X1']
New Line.259181477 Phases= 3 Bus1=258425242.1.2.3 Bus2=258425246.1.2.3 Length=352.30 units=m  Spacing=8'-ARM-NON-CENTER-POST-3PH wires=['1/0-ACSR-B-6X1' '1/0-ACSR-B-6X1' '1/0-ACSR-B-6X1' '2-ACSR-B-6X1']
New Line.263399394 Bus1=263399391.3     Bus2=260664781.3     LineCode=1/0-AL-HMWPECN-15KV Phases= 1 Length=30.53  units=m enable=yes
New Line.258405816 Phases= 1 Bus1=258405806.2     Bus2=258405818.2     Length=22.63  units=m  Spacing=VERTICAL-1-PH-60-1PH wires=['2-ACSR-B-6X1' '1/0-ACSR-B-6X1']
New Line.258443929 Phases= 1 Bus1=258443926.3     Bus2=258443931.3     Length=41.42  units=m  Spacing=VERTICAL-1-PH-60-1PH wires=['2-ACSR-B-6X1' '2-ACSR-B-6X1']
New Line.258425765 Phases= 3 Bus1=258425760.1.2.3 Bus2=258425767.1.2.3 Length=20.88  units=m  Spacing=8'-ARM-NON-CENTER-POST-3PH wires=['1/0-ACSR-B-6X1' '1/0-ACSR-B-6X1' '1/0-ACSR-B-6X1' '1/0-ACSR-B-6X1']
New Line.258406376 Phases= 3 Bus1=258406373.1.2.3 Bus2=258406378.1.2.3 Length=175.30 units=m  Spacing=8'-ARM-STANDARD-3PH wires=['1/0-ACSR-B-6X1' '1/0-ACSR-B-6X1' '1/0-ACSR-B-6X1' '1/0-ACSR-B-6X1']
New Line.263733249 Phases= 1 Bus1=263733246.3     Bus2=258406223.3     Length=145.70 units=m  Spacing=VERTICAL-1-PH-60-1PH wires=['2-ACSR-B-6X1' '2-ACSR-B-6X1']
New Line.450041329 Bus1=450041290.1     Bus2=450041331.1     LineCode=1/0-AL-TRXLPELCJ-25KV Phases= 1 Length=1.52   units=m enable=yes
New Line.258405886 Phases= 3 Bus1=258405883.1.2.3 Bus2=258405888.1.2.3 Length=74.92  units=m  Spacing=8'-ARM-STANDARD-3PH wires=['1/0-ACSR-B-6X1' '1/0-ACSR-B-6X1' '1/0-ACSR-B-6X1' '1/0-ACSR-B-6X1']
New Line.258405941 Phases= 3 Bus1=258405938.1.2.3 Bus2=258405943.1.2.3 Length=40.39  units=m  Spacing=8'-ARM-STANDARD-3PH wires=['1/0-ACSR-B-6X1' '1/0-ACSR-B-6X1' '1/0-ACSR-B-6X1' '1/0-ACSR-B-6X1']
New Line.263997742 Bus1=258443763.3     Bus2=263997744.3     LineCode=1/0-AL-TRXLPELCJ-15KV Phases= 1 Length=1.52   units=m enable=yes
New Line.258444096 Phases= 3 Bus1=258444093.1.2.3 Bus2=258444098.1.2.3 Length=271.50 units=m  Spacing=8'-ARM-NON-CENTER-POST-3PH wires=['2-ACSR-B-6X1' '2-ACSR-B-6X1' '2-ACSR-B-6X1' '2-ACSR-B-6X1']
New Line.258425033 Phases= 3 Bus1=258425030.1.2.3 Bus2=258425035.1.2.3 Length=55.87  units=m  Spacing=8'-ARM-NON-CENTER-POST-3PH wires=['2-ACSR-B-6X1' '2-ACSR-B-6X1' '2-ACSR-B-6X1' '2-ACSR-B-6X1']
New Line.258443557 Phases= 3 Bus1=258443554.1.2.3 Bus2=258443559.1.2.3 Length=38.65  units=m  Spacing=8'-ARM-NON-CENTER-POST-3PH wires=['2-ACSR-B-6X1' '2-ACSR-B-6X1' '2-ACSR-B-6X1' '2-ACSR-B-6X1']
New Line.258405804 Phases= 3 Bus1=258405801.1.2.3 Bus2=258405806.1.2.3 Length=90.44  units=m  Spacing=8'-ARM-STANDARD-3PH wires=['1/0-ACSR-B-6X1' '1/0-ACSR-B-6X1' '1/0-ACSR-B-6X1' '1/0-ACSR-B-6X1']
New Line.263399173 Bus1=258443424.2     Bus2=263399175.2     LineCode=1/0-AL-HMWPECN-15KV Phases= 1 Length=1.53   units=m enable=yes
New Line.263399331 Bus1=263399328.3     Bus2=260664771.3     LineCode=1/0-AL-HMWPECN-15KV Phases= 1 Length=108.30 units=m enable=yes
New Line.263395321 Phases= 1 Bus1=263395318.3     Bus2=258425513.3     Length=83.03  units=m  Spacing=VERTICAL-1-PH-60-1PH wires=['4-ACSR-B-6X1' '4-ACSR-B-6X1']
New Line.258405976 Phases= 1 Bus1=258405973.3     Bus2=258405978.3     Length=64.11  units=m  Spacing=VERTICAL-1-PH-60-1PH wires=['2-ACSR-B-6X1' '2-ACSR-B-6X1']
New Line.258406211 Phases= 1 Bus1=258406208.3     Bus2=258406213.3     Length=59.53  units=m  Spacing=VERTICAL-1-PH-60-1PH wires=['2-ACSR-B-6X1' '2-ACSR-B-6X1']
New Line.258443437 Phases= 3 Bus1=258443434.1.2.3 Bus2=258443439.1.2.3 Length=46.77  units=m  Spacing=8'-ARM-NON-CENTER-POST-3PH wires=['2-ACSR-B-6X1' '2-ACSR-B-6X1' '2-ACSR-B-6X1' '2-ACSR-B-6X1']
New Line.258443497 Phases= 3 Bus1=258443494.1.2.3 Bus2=258443499.1.2.3 Length=114.40 units=m  Spacing=8'-ARM-NON-CENTER-POST-3PH wires=['2-ACSR-B-6X1' '2-ACSR-B-6X1' '2-ACSR-B-6X1' '2-ACSR-B-6X1']
New Line.258405916 Phases= 3 Bus1=258405913.1.2.3 Bus2=258405918.1.2.3 Length=89.72  units=m  Spacing=8'-ARM-STANDARD-3PH wires=['1/0-ACSR-B-6X1' '1/0-ACSR-B-6X1' '1/0-ACSR-B-6X1' '1/0-ACSR-B-6X1']
New Line.258405732 Phases= 3 Bus1=258405729.1.2.3 Bus2=258405734.1.2.3 Length=62.87  units=m  Spacing=HORIZ-LINE-POST-3PH wires=['336-AAC-B-19' '336-AAC-B-19' '336-AAC-B-19' '1/0-ACSR-B-6X1']
New Line.258426012 Phases= 3 Bus1=258426009.1.2.3 Bus2=258426014.1.2.3 Length=84.19  units=m  Spacing=8'-ARM-NON-CENTER-POST-3PH wires=['2-ACSR-B-6X1' '2-ACSR-B-6X1' '2-ACSR-B-6X1' '2-ACSR-B-6X1']
New Line.263733325 Phases= 1 Bus1=258425730.1     Bus2=263733327.1     Length=1.53   units=m  Spacing=VERTICAL-1-PH-60-1PH wires=['1/0-ACSR-B-6X1' '1/0-ACSR-B-6X1']
New Line.384331457 Phases= 1 Bus1=384331454.3     Bus2=384331459.3     Length=53.60  units=m  Spacing=VERTICAL-1-PH-104-1PH wires=['2-ACSR-B-6X1' '2-ACSR-B-6X1']
New Line.258444192 Phases= 3 Bus1=258444174.1.2.3 Bus2=258444194.1.2.3 Length=67.50  units=m  Spacing=8'-ARM-NON-CENTER-POST-3PH wires=['2-ACSR-B-6X1' '2-ACSR-B-6X1' '2-ACSR-B-6X1' '2-ACSR-B-6X1']
New Line.263395244 Phases= 1 Bus1=258425289.3     Bus2=263395246.3     Length=1.53   units=m  Spacing=VERTICAL-1-PH-60-1PH wires=['2-ACSR-B-6X1' '2-ACSR-B-6X1']
New Line.263395240 Phases= 1 Bus1=263395237.3     Bus2=258425264.3     Length=140.80 units=m  Spacing=VERTICAL-1-PH-60-1PH wires=['2-ACSR-B-6X1' '2-ACSR-B-6X1']
New Line.263391461 Bus1=258406218.3     Bus2=263391463.3     LineCode=1/0-AL-HMWPECN-15KV Phases= 1 Length=1.52   units=m enable=yes
New Line.263395402 Bus1=263395399.1.2.3 Bus2=260663870.1.2.3 LineCode=1/0-AL-HMWPECN-15KV Phases= 3 Length=108.70 units=m enable=yes
New Line.258406640 Phases= 2 Bus1=615922786.2.3   Bus2=258406647.2.3   Length=86.58  units=m  Spacing=8'-ARM-STANDARD-2PH wires=['2-ACSR-B-6X1' '2-ACSR-B-6X1' '2-ACSR-B-6X1']
New Line.263395289 Phases= 1 Bus1=258406460.3     Bus2=263395291.3     Length=1.53   units=m  Spacing=VERTICAL-1-PH-60-1PH wires=['4-ACSR-B-6X1' '4-ACSR-B-6X1']
New Line.258443632 Phases= 3 Bus1=258443633.1.2.3 Bus2=258443634.1.2.3 Length=325.30 units=m  Spacing=8'-ARM-NON-CENTER-POST-3PH wires=['2-ACSR-B-6X1' '2-ACSR-B-6X1' '2-ACSR-B-6X1' '2-ACSR-B-6X1']
New Line.258443667 Phases= 1 Bus1=258443664.2     Bus2=258443669.2     Length=47.53  units=m  Spacing=VERTICAL-1-PH-60-1PH wires=['2-ACSR-B-6X1' '2-ACSR-B-6X1']
New Line.258443410 Phases= 3 Bus1=258443407.1.2.3 Bus2=258443412.1.2.3 Length=121.90 units=m  Spacing=HORIZ-LINE-POST-3PH wires=['2-ACSR-B-6X1' '2-ACSR-B-6X1' '2-ACSR-B-6X1' '2-ACSR-B-6X1']
New Line.258406675 Phases= 2 Bus1=258406672.2.3   Bus2=258406677.2.3   Length=27.52  units=m  Spacing=8'-ARM-STANDARD-2PH wires=['2-ACSR-B-6X1' '2-ACSR-B-6X1' '2-ACSR-B-6X1']
New Line.258406186 Phases= 1 Bus1=258406183.3     Bus2=258406188.3     Length=21.13  units=m  Spacing=VERTICAL-1-PH-60-1PH wires=['2-ACSR-B-6X1' '2-ACSR-B-6X1']
New Line.263395438 Phases= 1 Bus1=263395435.3     Bus2=258425902.3     Length=37.83  units=m  Spacing=VERTICAL-1-PH-60-1PH wires=['2-ACSR-B-6X1' '2-ACSR-B-6X1']
New Line.258406453 Phases= 3 Bus1=258406450.1.2.3 Bus2=258406455.1.2.3 Length=51.99  units=m  Spacing=8'-ARM-NON-CENTER-POST-3PH wires=['2-ACSR-B-6X1' '2-ACSR-B-6X1' '2-ACSR-B-6X1' '2-ACSR-B-6X1']
New Line.261434105 Bus1=261433687.3     Bus2=261433671.3     LineCode=1/0-AL-TRXLPELCJ-15KV Phases= 1 Length=92.42  units=m enable=yes
New Line.258406431 Phases= 3 Bus1=258406428.1.2.3 Bus2=258406433.1.2.3 Length=228.20 units=m  Spacing=8'-ARM-NON-CENTER-POST-3PH wires=['2-ACSR-B-6X1' '2-ACSR-B-6X1' '2-ACSR-B-6X1' '2-ACSR-B-6X1']
New Line.258425790 Phases= 3 Bus1=258425782.1.2.3 Bus2=258425792.1.2.3 Length=62.37  units=m  Spacing=8'-ARM-NON-CENTER-POST-3PH wires=['2-ACSR-B-6X1' '2-ACSR-B-6X1' '2-ACSR-B-6X1' '2-ACSR-B-6X1']
New Line.258443772 Phases= 3 Bus1=258425822.1.2.3 Bus2=258443774.1.2.3 Length=23.57  units=m  Spacing=8'-ARM-NON-CENTER-POST-3PH wires=['2-ACSR-B-6X1' '2-ACSR-B-6X1' '2-ACSR-B-6X1' '2-ACSR-B-6X1']
New Line.258406436 Phases= 3 Bus1=258406433.1.2.3 Bus2=258406438.1.2.3 Length=111.40 units=m  Spacing=8'-ARM-NON-CENTER-POST-3PH wires=['2-ACSR-B-6X1' '2-ACSR-B-6X1' '2-ACSR-B-6X1' '2-ACSR-B-6X1']
New Line.258425920 Phases= 3 Bus1=258425917.1.2.3 Bus2=258425922.1.2.3 Length=56.14  units=m  Spacing=8'-ARM-NON-CENTER-POST-3PH wires=['2-ACSR-B-6X1' '2-ACSR-B-6X1' '2-ACSR-B-6X1' '2-ACSR-B-6X1']
New Line.258425618 Phases= 3 Bus1=258425615.1.2.3 Bus2=258425620.1.2.3 Length=48.51  units=m  Spacing=8'-ARM-STANDARD-3PH wires=['1/0-ACSR-B-6X1' '1/0-ACSR-B-6X1' '1/0-ACSR-B-6X1' '1/0-ACSR-B-6X1']
New Line.258406101 Phases= 1 Bus1=258406098.1     Bus2=258406103.1     Length=49.49  units=m  Spacing=VERTICAL-1-PH-60-1PH wires=['2-ACSR-B-6X1' '2-ACSR-B-6X1']
New Line.258444059 Phases= 1 Bus1=258444046.3     Bus2=258444061.3     Length=22.29  units=m  Spacing=VERTICAL-1-PH-60-1PH wires=['2-ACSR-B-6X1' '2-ACSR-B-6X1']
New Line.258406051 Phases= 1 Bus1=258406048.1     Bus2=258406053.1     Length=130.50 units=m  Spacing=VERTICAL-1-PH-60-1PH wires=['2-ACSR-B-6X1' '2-ACSR-B-6X1']
New Line.258443487 Phases= 3 Bus1=258443479.1.2.3 Bus2=258443489.1.2.3 Length=107.50 units=m  Spacing=8'-ARM-NON-CENTER-POST-3PH wires=['2-ACSR-B-6X1' '2-ACSR-B-6X1' '2-ACSR-B-6X1' '2-ACSR-B-6X1']
New Line.263395334 Phases= 1 Bus1=258406003.3     Bus2=263395336.3     Length=1.52   units=m  Spacing=VERTICAL-1-PH-60-1PH wires=['2-ACSR-B-6X1' '2-ACSR-B-6X1']
New Line.263395258 Phases= 3 Bus1=263395255.1.2.3 Bus2=258425316.1.2.3 Length=48.59  units=m  Spacing=8'-ARM-NON-CENTER-POST-3PH wires=['2-ACSR-B-6X1' '2-ACSR-B-6X1' '2-ACSR-B-6X1' '2-ACSR-B-6X1']
New Line.258425703 Phases= 3 Bus1=258425704.1.2.3 Bus2=258425705.1.2.3 Length=87.32  units=m  Spacing=8'-ARM-NON-CENTER-POST-3PH wires=['2-ACSR-B-6X1' '1/0-ACSR-B-6X1' '1/0-ACSR-B-6X1' '2-ACSR-B-6X1']
New Line.263399385 Phases= 1 Bus1=263399382.1     Bus2=258444179.1     Length=47.24  units=m  Spacing=VERTICAL-1-PH-60-1PH wires=['1/0-ACSR-B-6X1' '1/0-ACSR-B-6X1']
New Line.258425748 Phases= 3 Bus1=258425749.1.2.3 Bus2=258425750.1.2.3 Length=64.44  units=m  Spacing=8'-ARM-STANDARD-3PH wires=['1/0-ACSR-B-6X1' '2-ACSR-B-6X1' '1/0-ACSR-B-6X1' '2-ACSR-B-6X1']
New Line.258443809 Phases= 1 Bus1=258443806.3     Bus2=258443811.3     Length=107.70 units=m  Spacing=VERTICAL-1-PH-60-1PH wires=['2-ACSR-B-6X1' '2-ACSR-B-6X1']
New Line.620861452 Bus1=620861448.2     Bus2=620861437.2     LineCode=1/0-AL-TRXLPELCJ-25KV Phases= 1 Length=231.60 units=m enable=yes
New Line.258443894 Phases= 1 Bus1=258443876.3     Bus2=258443896.3     Length=28.55  units=m  Spacing=VERTICAL-1-PH-60-1PH wires=['1/0-ACSR-B-6X1' '1/0-ACSR-B-6X1']
New Line.384399846 Phases= 3 Bus1=258406465.1.2.3 Bus2=384399848.1.2.3 Length=1.52   units=m  Spacing=8'-ARM-NON-CENTER-POST-3PH wires=['1/0-ACSR-B-6X1' '1/0-ACSR-B-6X1' '1/0-ACSR-B-6X1' '2-ACSR-B-6X1']
New Line.258406251 Phases= 1 Bus1=258406243.1     Bus2=258406253.1     Length=44.70  units=m  Spacing=VERTICAL-1-PH-60-1PH wires=['2-ACSR-B-6X1' '2-ACSR-B-6X1']
New Line.258405906 Phases= 1 Bus1=258405903.2     Bus2=258405908.2     Length=334.30 units=m  Spacing=VERTICAL-1-PH-60-1PH wires=['2-ACSR-B-6X1' '2-ACSR-B-6X1']
New Line.258425551 Phases= 1 Bus1=258425548.1     Bus2=258425553.1     Length=66.79  units=m  Spacing=VERTICAL-1-PH-60-1PH wires=['1/0-ACSR-B-6X1' '1/0-ACSR-B-6X1']
New Line.263399353 Bus1=258443981.3     Bus2=263399355.3     LineCode=1/0-AL-HMWPECN-15KV Phases= 1 Length=1.53   units=m enable=yes
New Line.258425267 Phases= 3 Bus1=258425259.1.2.3 Bus2=258425269.1.2.3 Length=84.71  units=m  Spacing=8'-ARM-NON-CENTER-POST-3PH wires=['1/0-ACSR-B-6X1' '1/0-ACSR-B-6X1' '1/0-ACSR-B-6X1' '2-ACSR-B-6X1']
New Line.258406568 Phases= 3 Bus1=258406530.1.2.3 Bus2=258406570.1.2.3 Length=33.04  units=m  Spacing=8'-ARM-NON-CENTER-POST-3PH wires=['2-ACSR-B-6X1' '2-ACSR-B-6X1' '2-ACSR-B-6X1' '2-ACSR-B-6X1']
New Line.263399344 Phases= 1 Bus1=258443936.3     Bus2=263399346.3     Length=1.52   units=m  Spacing=VERTICAL-1-PH-60-1PH wires=['1/0-ACSR-B-6X1' '1/0-ACSR-B-6X1']
New Line.258425210 Phases= 3 Bus1=258425207.1.2.3 Bus2=258425212.1.2.3 Length=248.10 units=m  Spacing=8'-ARM-NON-CENTER-POST-3PH wires=['1/0-ACSR-B-6X1' '1/0-ACSR-B-6X1' '1/0-ACSR-B-6X1' '1/0-ACSR-B-6X1']
New Line.258425992 Phases= 3 Bus1=258425987.1.2.3 Bus2=258425994.1.2.3 Length=46.79  units=m  Spacing=8'-ARM-NON-CENTER-POST-3PH wires=['2-ACSR-B-6X1' '2-ACSR-B-6X1' '2-ACSR-B-6X1' '2-ACSR-B-6X1']
New Line.258424932 Phases= 3 Bus1=258424929.1.2.3 Bus2=258424934.1.2.3 Length=64.96  units=m  Spacing=8'-ARM-NON-CENTER-POST-3PH wires=['2-ACSR-B-6X1' '2-ACSR-B-6X1' '2-ACSR-B-6X1' '2-ACSR-B-6X1']
New Line.258443572 Phases= 3 Bus1=258443569.1.2.3 Bus2=258443574.1.2.3 Length=79.52  units=m  Spacing=8'-ARM-NON-CENTER-POST-3PH wires=['2-ACSR-B-6X1' '2-ACSR-B-6X1' '2-ACSR-B-6X1' '2-ACSR-B-6X1']
New Line.258444118 Phases= 1 Bus1=258444108.2     Bus2=258444120.2     Length=36.21  units=m  Spacing=VERTICAL-1-PH-60-1PH wires=['2-ACSR-B-6X1' '2-ACSR-B-6X1']
New Line.263391547 Phases= 1 Bus1=263391544.2     Bus2=258406565.2     Length=188.20 units=m  Spacing=VERTICAL-1-PH-60-1PH wires=['2-ACSR-B-6X1' '2-ACSR-B-6X1']
New Line.263395370 Phases= 1 Bus1=258425635.3     Bus2=263395372.3     Length=1.52   units=m  Spacing=VERTICAL-1-PH-60-1PH wires=['2-ACSR-B-6X1' '2-ACSR-B-6X1']
New Line.258443999 Phases= 1 Bus1=258443996.3     Bus2=258444001.3     Length=113.30 units=m  Spacing=VERTICAL-1-PH-60-1PH wires=['1/0-ACSR-B-6X1' '1/0-ACSR-B-6X1']
New Line.620861401 Phases= 1 Bus1=620861398.1     Bus2=620861392.1     Length=67.15  units=m  Spacing=VERTICAL-1-PH-60-1PH wires=['2-ACSR-B-6X1' '2-ACSR-B-6X1']
New Line.724080051 Phases= 3 Bus1=264377257.1.2.3 Bus2=724080049.1.2.3 Length=6.13   units=m  Spacing=8'-ARM-STANDARD-3PH wires=['1/0-ACSR-B-6X1' '1/0-ACSR-B-6X1' '1/0-ACSR-B-6X1' '1/0-ACSR-B-6X1']
New Line.263391565 Bus1=263391562.3     Bus2=260662946.3     LineCode=1/0-AL-HMWPECN-15KV Phases= 1 Length=170.40 units=m enable=yes
New Line.258425845 Phases= 1 Bus1=258425842.1     Bus2=258425847.1     Length=81.35  units=m  Spacing=VERTICAL-1-PH-60-1PH wires=['2-ACSR-B-6X1' '2-ACSR-B-6X1']
New Line.258443984 Phases= 1 Bus1=258443985.3     Bus2=258443986.3     Length=23.47  units=m  Spacing=VERTICAL-1-PH-60-1PH wires=['1/0-ACSR-B-6X1' '1/0-ACSR-B-6X1']
New Line.259550262 Phases= 3 Bus1=258444071.1.2.3 Bus2=258444077.1.2.3 Length=27.76  units=m  Spacing=8'-ARM-NON-CENTER-POST-3PH wires=['2-ACSR-B-6X1' '2-ACSR-B-6X1' '2-ACSR-B-6X1' '2-ACSR-B-6X1']
New Line.260028118 Phases= 3 Bus1=258426019.1.2.3 Bus2=258426033.1.2.3 Length=131.10 units=m  Spacing=8'-ARM-NON-CENTER-POST-3PH wires=['2-ACSR-B-6X1' '2-ACSR-B-6X1' '2-ACSR-B-6X1' '2-ACSR-B-6X1']
New Line.258405861 Phases= 1 Bus1=258405858.1     Bus2=258405863.1     Length=33.83  units=m  Spacing=VERTICAL-1-PH-60-1PH wires=['2-ACSR-B-6X1' '2-ACSR-B-6X1']
New Line.263395195 Phases= 1 Bus1=263395192.3     Bus2=258425055.3     Length=159.10 units=m  Spacing=VERTICAL-1-PH-60-1PH wires=['2-ACSR-B-6X1' '2-ACSR-B-6X1']
New Line.261434125 Bus1=261434126.2     Bus2=261433681.2     LineCode=1/0-AL-TRXLPELCJ-15KV Phases= 1 Length=107.80 units=m enable=yes
New Line.263956610 Phases= 1 Bus1=258406524.3     Bus2=263956612.3     Length=1.52   units=m  Spacing=VERTICAL-1-PH-104-1PH wires=['2-ACSR-B-6X1' '2-ACSR-B-6X1']
New Line.258425381 Phases= 1 Bus1=258425378.2     Bus2=258425383.2     Length=99.13  units=m  Spacing=VERTICAL-1-PH-60-1PH wires=['2-ACSR-B-6X1' '2-ACSR-B-6X1']
New Line.260663858 Bus1=260663855.2     Bus2=264276847.2     LineCode=1/0-AL-HMWPECN-15KV Phases= 1 Length=167.30 units=m enable=yes
New Line.258406650 Phases= 2 Bus1=258406647.2.3   Bus2=258406652.2.3   Length=74.78  units=m  Spacing=8'-ARM-STANDARD-2PH wires=['2-ACSR-B-6X1' '2-ACSR-B-6X1' '2-ACSR-B-6X1']
New Line.259988207 Phases= 3 Bus1=258425700.1.2.3 Bus2=258425704.1.2.3 Length=44.47  units=m  Spacing=8'-ARM-NON-CENTER-POST-3PH wires=['2-ACSR-B-6X1' '1/0-ACSR-B-6X1' '1/0-ACSR-B-6X1' '2-ACSR-B-6X1']
New Line.263399272 Phases= 1 Bus1=258443639.2     Bus2=263399274.2     Length=1.52   units=m  Spacing=VERTICAL-1-PH-60-1PH wires=['2-ACSR-B-6X1' '2-ACSR-B-6X1']
New Line.264148876 Bus1=264148873.3     Bus2=261433687.3     LineCode=1/0-AL-TRXLPELCJ-15KV Phases= 1 Length=48.02  units=m enable=yes
New Line.263391362 Phases= 1 Bus1=258405893.2     Bus2=263391364.2     Length=1.52   units=m  Spacing=VERTICAL-1-PH-60-1PH wires=['2-ACSR-B-6X1' '2-ACSR-B-6X1']
New Line.699612984 Phases= 1 Bus1=258405622.2     Bus2=699612986.2     Length=1.54   units=m  Spacing=VERTICAL-1-PH-60-1PH wires=['2-ACSR-B-6X1' '2-ACSR-B-6X1']
New Line.258425965 Phases= 3 Bus1=258425946.1.2.3 Bus2=258425967.1.2.3 Length=199.30 units=m  Spacing=HORIZ-LINE-POST-3PH wires=['2-ACSR-B-6X1' '2-ACSR-B-6X1' '2-ACSR-B-6X1' '2-ACSR-B-6X1']
New Line.260981163 Bus1=260981164.3     Bus2=260981165.3     LineCode=1/0-AL-TRXLPELCJ-15KV Phases= 1 Length=126.80 units=m enable=yes
New Line.263395361 Phases= 1 Bus1=258425615.1     Bus2=263395363.1     Length=1.52   units=m  Spacing=VERTICAL-1-PH-60-1PH wires=['2-ACSR-B-6X1' '2-ACSR-B-6X1']
New Line.258405921 Phases= 1 Bus1=258405918.3     Bus2=258405923.3     Length=92.32  units=m  Spacing=VERTICAL-1-PH-60-1PH wires=['2-ACSR-B-6X1' '2-ACSR-B-6X1']
New Line.258406061 Phases= 1 Bus1=258406038.1     Bus2=258406063.1     Length=17.86  units=m  Spacing=VERTICAL-1-PH-60-1PH wires=['2-ACSR-B-6X1' '2-ACSR-B-6X1']
New Line.259478701 Phases= 1 Bus1=258425403.2     Bus2=258425407.2     Length=191.00 units=m  Spacing=VERTICAL-1-PH-60-1PH wires=['2-ACSR-B-6X1' '2-ACSR-B-6X1']
New Line.258406081 Phases= 1 Bus1=258406082.1     Bus2=258406083.1     Length=42.27  units=m  Spacing=VERTICAL-1-PH-60-1PH wires=['2-ACSR-B-6X1' '2-ACSR-B-6X1']
New Line.258405831 Phases= 1 Bus1=258405828.3     Bus2=258405833.3     Length=35.46  units=m  Spacing=VERTICAL-1-PH-60-1PH wires=['2-ACSR-B-6X1' '2-ACSR-B-6X1']
New Line.699613249 Phases= 3 Bus1=258405702.1.2.3 Bus2=699613251.1.2.3 Length=211.80 units=m  Spacing=HORIZ-LINE-POST-3PH wires=['336-AAC-B-19' '336-AAC-B-19' '336-AAC-B-19' '1/0-ACSR-B-6X1']
New Line.491242306 Phases= 3 Bus1=491242301.1.2.3 Bus2=258444139.1.2.3 Length=71.28  units=m  Spacing=8'-ARM-NON-CENTER-POST-3PH wires=['2-ACSR-B-6X1' '2-ACSR-B-6X1' '2-ACSR-B-6X1' '2-ACSR-B-6X1']
New Line.263997756 Phases= 1 Bus1=263997753.1     Bus2=259550269.1     Length=59.40  units=m  Spacing=VERTICAL-1-PH-104-1PH wires=['2-ACSR-B-6X1' '2-ACSR-B-6X1']
New Line.258443899 Phases= 1 Bus1=258443896.3     Bus2=258443901.3     Length=26.76  units=m  Spacing=VERTICAL-1-PH-60-1PH wires=['1/0-ACSR-B-6X1' '1/0-ACSR-B-6X1']
New Line.258443914 Phases= 1 Bus1=258443911.3     Bus2=258443916.3     Length=44.72  units=m  Spacing=VERTICAL-1-PH-60-1PH wires=['1/0-ACSR-B-6X1' '1/0-ACSR-B-6X1']
New Line.258425085 Phases= 1 Bus1=258425080.2     Bus2=258425087.2     Length=92.07  units=m  Spacing=VERTICAL-1-PH-60-1PH wires=['2-ACSR-B-6X1' '2-ACSR-B-6X1']
New Line.263960227 Bus1=259478708.2     Bus2=263960229.2     LineCode=1/0-AL-TRXLPELCJ-15KV Phases= 1 Length=1.53   units=m enable=yes
New Line.263782323 Phases= 3 Bus1=263782320.1.2.3 Bus2=258425972.1.2.3 Length=41.23  units=m  Spacing=8'-ARM-NON-CENTER-POST-3PH wires=['2-ACSR-B-6X1' '2-ACSR-B-6X1' '2-ACSR-B-6X1' '2-ACSR-B-6X1']
New Line.620861396 Phases= 1 Bus1=258425075.1     Bus2=620861398.1     Length=1.52   units=m  Spacing=VERTICAL-1-PH-60-1PH wires=['2-ACSR-B-6X1' '2-ACSR-B-6X1']
New Line.258406558 Phases= 1 Bus1=258406555.3     Bus2=258406560.3     Length=76.88  units=m  Spacing=VERTICAL-1-PH-60-1PH wires=['2-ACSR-B-6X1' '2-ACSR-B-6X1']
New Line.258405777 Phases= 3 Bus1=258405774.1.2.3 Bus2=258405779.1.2.3 Length=74.49  units=m  Spacing=HORIZ-LINE-POST-3PH wires=['336-AAC-B-19' '336-AAC-B-19' '336-AAC-B-19' '1/0-ACSR-B-6X1']
New Line.258425785 Phases= 3 Bus1=258425782.1.2.3 Bus2=258425787.1.2.3 Length=52.86  units=m  Spacing=8'-ARM-NON-CENTER-POST-3PH wires=['2-ACSR-B-6X1' '2-ACSR-B-6X1' '2-ACSR-B-6X1' '2-ACSR-B-6X1']
New Line.260662929 Bus1=260662926.2     Bus2=260662931.2     LineCode=1/0-AL-HMWPECN-15KV Phases= 1 Length=140.00 units=m enable=yes
New Line.258425331 Phases= 1 Bus1=258425328.2     Bus2=258425333.2     Length=118.00 units=m  Spacing=VERTICAL-1-PH-60-1PH wires=['2-ACSR-B-6X1' '2-ACSR-B-6X1']
New Line.263733316 Phases= 1 Bus1=258425704.2     Bus2=263733318.2     Length=1.52   units=m  Spacing=VERTICAL-1-PH-60-1PH wires=['2-ACSR-B-6X1' '2-ACSR-B-6X1']
New Line.264148844 Bus1=259577439.3     Bus2=264148846.3     LineCode=1/0-AL-TRXLPELCJ-15KV Phases= 1 Length=1.51   units=m enable=yes
New Line.258443974 Phases= 1 Bus1=258443931.3     Bus2=258443976.3     Length=66.37  units=m  Spacing=VERTICAL-1-PH-60-1PH wires=['2-ACSR-B-6X1' '2-ACSR-B-6X1']
New Line.491242325 Phases= 1 Bus1=491242313.2     Bus2=491242302.2     Length=101.20 units=m  Spacing=VERTICAL-1-PH-104-1PH wires=['2-ACSR-B-6X1' '2-ACSR-B-6X1']
New Line.263395456 Bus1=263395453.1     Bus2=260663880.1     LineCode=1/0-AL-HMWPECN-15KV Phases= 1 Length=130.60 units=m enable=yes
...
