07_CYME/Flay_ret_16271201.sxst_DSS/Elements/Loads.dss
New Load.261243331_2 Bus1=261243331.2 Phases=1 kV=7.1996 kW=6.450439 yearly=YearlyB daily=DailyB kVAR=2.735834
New Load.258425192_3 Bus1=258425192.3 Phases=1 kV=7.1996 kW=2.273630 yearly=YearlyC daily=DailyC kVAR=0.753589
New Load.258426151_3 Bus1=258426151.3 Phases=1 kV=7.1996 kW=5.684074 yearly=YearlyC daily=DailyC kVAR=1.883973
New Load.258405948_3 Bus1=258405948.3 Phases=1 kV=7.1996 kW=3.410444 yearly=YearlyC daily=DailyC kVAR=1.130384
New Load.384399746_2 Bus1=384399746.2 Phases=1 kV=7.1996 kW=6.450439 yearly=YearlyB daily=DailyB kVAR=2.735834
New Load.258425348_2 Bus1=258425348.2 Phases=1 kV=7.1996 kW=2.580176 yearly=YearlyB daily=DailyB kVAR=1.094333
New Load.259149277_2 Bus1=259149277.2 Phases=1 kV=7.1996 kW=6.450439 yearly=YearlyB daily=DailyB kVAR=2.735834
New Load.258406333_1 Bus1=258406333.1 Phases=1 kV=7.1996 kW=6.475936 yearly=YearlyA daily=DailyA kVAR=2.562546
New Load.258443524_3 Bus1=258443524.3 Phases=1 kV=7.1996 kW=5.684074 yearly=YearlyC daily=DailyC kVAR=1.883973
New Load.258444154_2 Bus1=258444154.2 Phases=1 kV=7.1996 kW=6.450439 yearly=YearlyB daily=DailyB kVAR=2.735834
New Load.258443494_3 Bus1=258443494.3 Phases=1 kV=7.1996 kW=5.684074 yearly=YearlyC daily=DailyC kVAR=1.883973
New Load.258425543_3 Bus1=258425543.3 Phases=1 kV=7.1996 kW=5.684074 yearly=YearlyC daily=DailyC kVAR=1.883973
New Load.258406068_1 Bus1=258406068.1 Phases=1 kV=7.1996 kW=12.951872 yearly=YearlyA daily=DailyA kVAR=5.125092
New Load.258405647_2 Bus1=258405647.2 Phases=1 kV=7.1996 kW=6.450439 yearly=YearlyB daily=DailyB kVAR=2.735834
New Load.258405774_3 Bus1=258405774.3 Phases=1 kV=7.1996 kW=5.684074 yearly=YearlyC daily=DailyC kVAR=1.883973
New Load.261061097_1 Bus1=261061097.1 Phases=1 kV=7.1996 kW=12.951872 yearly=YearlyA daily=DailyA kVAR=5.125092
New Load.258406418_3 Bus1=258406418.3 Phases=1 kV=7.1996 kW=2.273630 yearly=YearlyC daily=DailyC kVAR=0.753589
New Load.258406228_2 Bus1=258406228.2 Phases=1 kV=7.1996 kW=6.450439 yearly=YearlyB daily=DailyB kVAR=2.735834
New Load.258444021_3 Bus1=258444021.3 Phases=1 kV=7.1996 kW=5.684074 yearly=YearlyC daily=DailyC kVAR=1.883973
New Load.258406133_1 Bus1=258406133.1 Phases=1 kV=7.1996 kW=6.475936 yearly=YearlyA daily=DailyA kVAR=2.562546
New Load.258405691_3 Bus1=258405691.3 Phases=1 kV=7.1996 kW=5.684074 yearly=YearlyC daily=DailyC kVAR=1.883973
New Load.258406153_1 Bus1=258406153.1 Phases=1 kV=7.1996 kW=6.475936 yearly=YearlyA daily=DailyA kVAR=2.562546
New Load.438022625_3 Bus1=438022625.3 Phases=1 kV=7.1996 kW=8.526111 yearly=YearlyC daily=DailyC kVAR=2.825960
New Load.258443554_1 Bus1=258443554.1 Phases=1 kV=7.1996 kW=6.475936 yearly=YearlyA daily=DailyA kVAR=2.562546
New Load.258443739_3 Bus1=258443739.3 Phases=1 kV=7.1996 kW=5.684074 yearly=YearlyC daily=DailyC kVAR=1.883973
New Load.258425947_1 Bus1=258425947.1 Phases=1 kV=7.1996 kW=6.475936 yearly=YearlyA daily=DailyA kVAR=2.562546
New Load.258443749_3 Bus1=258443749.3 Phases=1 kV=7.1996 kW=5.684074 yearly=YearlyC daily=DailyC kVAR=1.883973
New Load.260664691_2 Bus1=260664691.2 Phases=1 kV=7.1996 kW=6.450439 yearly=YearlyB daily=DailyB kVAR=2.735834
New Load.259228581_3 Bus1=259228581.3 Phases=1 kV=7.1996 kW=5.684074 yearly=YearlyC daily=DailyC kVAR=1.883973
New Load.258444011_3 Bus1=258444011.3 Phases=1 kV=7.1996 kW=5.684074 yearly=YearlyC daily=DailyC kVAR=1.883973
New Load.258406058_1 Bus1=258406058.1 Phases=1 kV=7.1996 kW=6.475936 yearly=YearlyA daily=DailyA kVAR=2.562546
New Load.261140529_2 Bus1=261140529.2 Phases=1 kV=7.1996 kW=12.900879 yearly=YearlyB daily=DailyB kVAR=5.471667
New Load.264245362_1 Bus1=264245362.1 Phases=1 kV=7.1996 kW=25.903745 yearly=YearlyA daily=DailyA kVAR=10.250185
New Load.258406540_3 Bus1=258406540.3 Phases=1 kV=7.1996 kW=5.684074 yearly=YearlyC daily=DailyC kVAR=1.883973
New Load.260664706_2 Bus1=260664706.2 Phases=1 kV=7.1996 kW=6.450439 yearly=YearlyB daily=DailyB kVAR=2.735834
New Load.258425999_1 Bus1=258425999.1 Phases=1 kV=7.1996 kW=6.475936 yearly=YearlyA daily=DailyA kVAR=2.562546
New Load.258425246_3 Bus1=258425246.3 Phases=1 kV=7.1996 kW=3.410444 yearly=YearlyC daily=DailyC kVAR=1.130384
New Load.260664781_3 Bus1=260664781.3 Phases=1 kV=7.1996 kW=5.684074 yearly=YearlyC daily=DailyC kVAR=1.883973
New Load.258443931_3 Bus1=258443931.3 Phases=1 kV=7.1996 kW=11.368148 yearly=YearlyC daily=DailyC kVAR=3.767947
New Load.258425767_1 Bus1=258425767.1 Phases=1 kV=7.1996 kW=12.951872 yearly=YearlyA daily=DailyA kVAR=5.125092
New Load.258425767_3 Bus1=258425767.3 Phases=1 kV=7.1996 kW=11.368148 yearly=YearlyC daily=DailyC kVAR=3.767947
New Load.258406223_3 Bus1=258406223.3 Phases=1 kV=7.1996 kW=5.684074 yearly=YearlyC daily=DailyC kVAR=1.883973
New Load.258405888_3 Bus1=258405888.3 Phases=1 kV=7.1996 kW=5.684074 yearly=YearlyC daily=DailyC kVAR=1.883973
New Load.258405943_3 Bus1=258405943.3 Phases=1 kV=7.1996 kW=5.684074 yearly=YearlyC daily=DailyC kVAR=1.883973
New Load.258425035_3 Bus1=258425035.3 Phases=1 kV=7.1996 kW=5.684074 yearly=YearlyC daily=DailyC kVAR=1.883973
New Load.258443559_1 Bus1=258443559.1 Phases=1 kV=7.1996 kW=6.475936 yearly=YearlyA daily=DailyA kVAR=2.562546
New Load.260664771_3 Bus1=260664771.3 Phases=1 kV=7.1996 kW=5.684074 yearly=YearlyC daily=DailyC kVAR=1.883973
New Load.258425513_3 Bus1=258425513.3 Phases=1 kV=7.1996 kW=5.684074 yearly=YearlyC daily=DailyC kVAR=1.883973
New Load.258406213_3 Bus1=258406213.3 Phases=1 kV=7.1996 kW=5.684074 yearly=YearlyC daily=DailyC kVAR=1.883973
New Load.258443439_2 Bus1=258443439.2 Phases=1 kV=7.1996 kW=6.450439 yearly=YearlyB daily=DailyB kVAR=2.735834
New Load.258443499_3 Bus1=258443499.3 Phases=1 kV=7.1996 kW=5.684074 yearly=YearlyC daily=DailyC kVAR=1.883973
New Load.258405918_3 Bus1=258405918.3 Phases=1 kV=7.1996 kW=5.684074 yearly=YearlyC daily=DailyC kVAR=1.883973
New Load.258444194_3 Bus1=258444194.3 Phases=1 kV=7.1996 kW=2.273630 yearly=YearlyC daily=DailyC kVAR=0.753589
New Load.258425264_3 Bus1=258425264.3 Phases=1 kV=7.1996 kW=5.684074 yearly=YearlyC daily=DailyC kVAR=1.883973
New Load.260663870_1 Bus1=260663870.1 Phases=1 kV=7.1996 kW=77.690000 yearly=YearlyA daily=DailyA kVAR=48.147938
New Load.260663870_2 Bus1=260663870.2 Phases=1 kV=7.1996 kW=77.690000 yearly=YearlyB daily=DailyB kVAR=48.147938
New Load.260663870_3 Bus1=260663870.3 Phases=1 kV=7.1996 kW=77.690000 yearly=YearlyC daily=DailyC kVAR=48.147938
New Load.261433671_3 Bus1=261433671.3 Phases=1 kV=7.1996 kW=17.052221 yearly=YearlyC daily=DailyC kVAR=5.651920
New Load.258425922_2 Bus1=258425922.2 Phases=1 kV=7.1996 kW=12.900879 yearly=YearlyB daily=DailyB kVAR=5.471667
New Load.258425620_1 Bus1=258425620.1 Phases=1 kV=7.1996 kW=6.475936 yearly=YearlyA daily=DailyA kVAR=2.562546
New Load.258406103_1 Bus1=258406103.1 Phases=1 kV=7.1996 kW=6.475936 yearly=YearlyA daily=DailyA kVAR=2.562546
New Load.258444061_3 Bus1=258444061.3 Phases=1 kV=7.1996 kW=2.273630 yearly=YearlyC daily=DailyC kVAR=0.753589
New Load.258406053_1 Bus1=258406053.1 Phases=1 kV=7.1996 kW=6.475936 yearly=YearlyA daily=DailyA kVAR=2.562546
New Load.258443489_3 Bus1=258443489.3 Phases=1 kV=7.1996 kW=5.684074 yearly=YearlyC daily=DailyC kVAR=1.883973
New Load.258425316_1 Bus1=258425316.1 Phases=1 kV=7.1996 kW=6.475936 yearly=YearlyA daily=DailyA kVAR=2.562546
New Load.258425316_2 Bus1=258425316.2 Phases=1 kV=7.1996 kW=6.450439 yearly=YearlyB daily=DailyB kVAR=2.735834
New Load.258425316_3 Bus1=258425316.3 Phases=1 kV=7.1996 kW=5.684074 yearly=YearlyC daily=DailyC kVAR=1.883973
New Load.258425750_2 Bus1=258425750.2 Phases=1 kV=7.1996 kW=6.450439 yearly=YearlyB daily=DailyB kVAR=2.735834
New Load.258443811_3 Bus1=258443811.3 Phases=1 kV=7.1996 kW=2.273630 yearly=YearlyC daily=DailyC kVAR=0.753589
New Load.620861437_2 Bus1=620861437.2 Phases=1 kV=7.1996 kW=6.450439 yearly=YearlyB daily=DailyB kVAR=2.735834
New Load.258443896_3 Bus1=258443896.3 Phases=1 kV=7.1996 kW=3.410444 yearly=YearlyC daily=DailyC kVAR=1.130384
New Load.258405908_2 Bus1=258405908.2 Phases=1 kV=7.1996 kW=6.450439 yearly=YearlyB daily=DailyB kVAR=2.735834
New Load.258425553_1 Bus1=258425553.1 Phases=1 kV=7.1996 kW=6.475936 yearly=YearlyA daily=DailyA kVAR=2.562546
New Load.258425269_3 Bus1=258425269.3 Phases=1 kV=7.1996 kW=5.684074 yearly=YearlyC daily=DailyC kVAR=1.883973
New Load.258406570_3 Bus1=258406570.3 Phases=1 kV=7.1996 kW=5.684074 yearly=YearlyC daily=DailyC kVAR=1.883973
New Load.258443574_3 Bus1=258443574.3 Phases=1 kV=7.1996 kW=5.684074 yearly=YearlyC daily=DailyC kVAR=1.883973
New Load.258444120_2 Bus1=258444120.2 Phases=1 kV=7.1996 kW=6.450439 yearly=YearlyB daily=DailyB kVAR=2.735834
New Load.258406565_2 Bus1=258406565.2 Phases=1 kV=7.1996 kW=2.580176 yearly=YearlyB daily=DailyB kVAR=1.094333
New Load.620861392_1 Bus1=620861392.1 Phases=1 kV=7.1996 kW=6.475936 yearly=YearlyA daily=DailyA kVAR=2.562546
New Load.260662946_3 Bus1=260662946.3 Phases=1 kV=7.1996 kW=11.368148 yearly=YearlyC daily=DailyC kVAR=3.767947
New Load.258425847_1 Bus1=258425847.1 Phases=1 kV=7.1996 kW=6.475936 yearly=YearlyA daily=DailyA kVAR=2.562546
New Load.258443986_3 Bus1=258443986.3 Phases=1 kV=7.1996 kW=5.684074 yearly=YearlyC daily=DailyC kVAR=1.883973
New Load.258405863_1 Bus1=258405863.1 Phases=1 kV=7.1996 kW=6.475936 yearly=YearlyA daily=DailyA kVAR=2.562546
New Load.258425055_3 Bus1=258425055.3 Phases=1 kV=7.1996 kW=5.684074 yearly=YearlyC daily=DailyC kVAR=1.883973
New Load.261433681_2 Bus1=261433681.2 Phases=1 kV=7.1996 kW=12.900879 yearly=YearlyB daily=DailyB kVAR=5.471667
New Load.258425383_2 Bus1=258425383.2 Phases=1 kV=7.1996 kW=6.450439 yearly=YearlyB daily=DailyB kVAR=2.735834
New Load.264276847_2 Bus1=264276847.2 Phases=1 kV=7.1996 kW=6.450439 yearly=YearlyB daily=DailyB kVAR=2.735834
New Load.261433687_3 Bus1=261433687.3 Phases=1 kV=7.1996 kW=11.368148 yearly=YearlyC daily=DailyC kVAR=3.767947
New Load.258425967_1 Bus1=258425967.1 Phases=1 kV=7.1996 kW=6.475936 yearly=YearlyA daily=DailyA kVAR=2.562546
New Load.260981165_3 Bus1=260981165.3 Phases=1 kV=7.1996 kW=22.736295 yearly=YearlyC daily=DailyC kVAR=7.535893
New Load.258405923_3 Bus1=258405923.3 Phases=1 kV=7.1996 kW=5.684074 yearly=YearlyC daily=DailyC kVAR=1.883973
New Load.258406083_1 Bus1=258406083.1 Phases=1 kV=7.1996 kW=12.951872 yearly=YearlyA daily=DailyA kVAR=5.125092
New Load.258405833_3 Bus1=258405833.3 Phases=1 kV=7.1996 kW=5.684074 yearly=YearlyC daily=DailyC kVAR=1.883973
New Load.258444139_1 Bus1=258444139.1 Phases=1 kV=7.1996 kW=6.475936 yearly=YearlyA daily=DailyA kVAR=2.562546
New Load.259550269_1 Bus1=259550269.1 Phases=1 kV=7.1996 kW=6.475936 yearly=YearlyA daily=DailyA kVAR=2.562546
New Load.258425087_2 Bus1=258425087.2 Phases=1 kV=7.1996 kW=6.450439 yearly=YearlyB daily=DailyB kVAR=2.735834
New Load.258425972_1 Bus1=258425972.1 Phases=1 kV=7.1996 kW=6.475936 yearly=YearlyA daily=DailyA kVAR=2.562546
New Load.258406560_3 Bus1=258406560.3 Phases=1 kV=7.1996 kW=3.410444 yearly=YearlyC daily=DailyC kVAR=1.130384
New Load.260662931_2 Bus1=260662931.2 Phases=1 kV=7.1996 kW=6.450439 yearly=YearlyB daily=DailyB kVAR=2.735834
New Load.258425333_2 Bus1=258425333.2 Phases=1 kV=7.1996 kW=2.580176 yearly=YearlyB daily=DailyB kVAR=1.094333
New Load.491242302_2 Bus1=491242302.2 Phases=1 kV=7.1996 kW=9.675659 yearly=YearlyB daily=DailyB kVAR=4.103750
New Load.260663880_1 Bus1=260663880.1 Phases=1 kV=7.1996 kW=6.475936 yearly=YearlyA daily=DailyA kVAR=2.562546
New Load.258406098_1 Bus1=258406098.1 Phases=1 kV=7.1996 kW=6.475936 yearly=YearlyA daily=DailyA kVAR=2.562546
New Load.258443449_1 Bus1=258443449.1 Phases=1 kV=7.1996 kW=3.885562 yearly=YearlyA daily=DailyA kVAR=1.537528
New Load.260663835_2 Bus1=260663835.2 Phases=1 kV=7.1996 kW=6.450439 yearly=YearlyB daily=DailyB kVAR=2.735834
New Load.261433666_3 Bus1=261433666.3 Phases=1 kV=7.1996 kW=11.368148 yearly=YearlyC daily=DailyC kVAR=3.767947
New Load.258406373_1 Bus1=258406373.1 Phases=1 kV=7.1996 kW=6.475936 yearly=YearlyA daily=DailyA kVAR=2.562546
New Load.258406238_1 Bus1=258406238.1 Phases=1 kV=7.1996 kW=6.475936 yearly=YearlyA daily=DailyA kVAR=2.562546
New Load.258425670_1 Bus1=258425670.1 Phases=1 kV=7.1996 kW=12.951872 yearly=YearlyA daily=DailyA kVAR=5.125092
New Load.258443629_1 Bus1=258443629.1 Phases=1 kV=7.1996 kW=3.885562 yearly=YearlyA daily=DailyA kVAR=1.537528
New Load.258406515_1 Bus1=258406515.1 Phases=1 kV=7.1996 kW=6.475936 yearly=YearlyA daily=DailyA kVAR=2.562546
New Load.261433676_2 Bus1=261433676.2 Phases=1 kV=7.1996 kW=12.900879 yearly=YearlyB daily=DailyB kVAR=5.471667
New Load.258443906_3 Bus1=258443906.3 Phases=1 kV=7.1996 kW=5.684074 yearly=YearlyC daily=DailyC kVAR=1.883973
New Load.258425640_1 Bus1=258425640.1 Phases=1 kV=7.1996 kW=2.590374 yearly=YearlyA daily=DailyA kVAR=1.025018
New Load.258443589_3 Bus1=258443589.3 Phases=1 kV=7.1996 kW=2.273630 yearly=YearlyC daily=DailyC kVAR=0.753589
New Load.258425877_1 Bus1=258425877.1 Phases=1 kV=7.1996 kW=3.885562 yearly=YearlyA daily=DailyA kVAR=1.537528
New Load.260663865_2 Bus1=260663865.2 Phases=1 kV=7.1996 kW=3.870264 yearly=YearlyB daily=DailyB kVAR=1.641500
New Load.258444204_1 Bus1=258444204.1 Phases=1 kV=7.1996 kW=12.951872 yearly=YearlyA daily=DailyA kVAR=5.125092
New Load.258444204_2 Bus1=258444204.2 Phases=1 kV=7.1996 kW=12.900879 yearly=YearlyB daily=DailyB kVAR=5.471667
New Load.258444204_3 Bus1=258444204.3 Phases=1 kV=7.1996 kW=11.368148 yearly=YearlyC daily=DailyC kVAR=3.767947
New Load.259217099_3 Bus1=259217099.3 Phases=1 kV=7.1996 kW=11.368148 yearly=YearlyC daily=DailyC kVAR=3.767947
New Load.258406353_1 Bus1=258406353.1 Phases=1 kV=7.1996 kW=6.475936 yearly=YearlyA daily=DailyA kVAR=2.562546
New Load.258405813_3 Bus1=258405813.3 Phases=1 kV=7.1996 kW=11.368148 yearly=YearlyC daily=DailyC kVAR=3.767947
New Load.259471076_3 Bus1=259471076.3 Phases=1 kV=7.1996 kW=5.684074 yearly=YearlyC daily=DailyC kVAR=1.883973
New Load.258426146_2 Bus1=258426146.2 Phases=1 kV=7.1996 kW=6.450439 yearly=YearlyB daily=DailyB kVAR=2.735834
New Load.258443624_3 Bus1=258443624.3 Phases=1 kV=7.1996 kW=5.684074 yearly=YearlyC daily=DailyC kVAR=1.883973
New Load.258443981_3 Bus1=258443981.3 Phases=1 kV=7.1996 kW=5.684074 yearly=YearlyC daily=DailyC kVAR=1.883973
New Load.260972735_3 Bus1=260972735.3 Phases=1 kV=7.1996 kW=22.736295 yearly=YearlyC daily=DailyC kVAR=7.535893
New Load.258406122_1 Bus1=258406122.1 Phases=1 kV=7.1996 kW=12.951872 yearly=YearlyA daily=DailyA kVAR=5.125092
New Load.258425197_1 Bus1=258425197.1 Phases=1 kV=7.1996 kW=2.590374 yearly=YearlyA daily=DailyA kVAR=1.025018
New Load.258425197_2 Bus1=258425197.2 Phases=1 kV=7.1996 kW=2.580176 yearly=YearlyB daily=DailyB kVAR=1.094333
New Load.258425197_3 Bus1=258425197.3 Phases=1 kV=7.1996 kW=2.273630 yearly=YearlyC daily=DailyC kVAR=0.753589
New Load.258443876_3 Bus1=258443876.3 Phases=1 kV=7.1996 kW=5.684074 yearly=YearlyC daily=DailyC kVAR=1.883973
New Load.258443966_3 Bus1=258443966.3 Phases=1 kV=7.1996 kW=5.684074 yearly=YearlyC daily=DailyC kVAR=1.883973
New Load.258425443_2 Bus1=258425443.2 Phases=1 kV=7.1996 kW=3.870264 yearly=YearlyB daily=DailyB kVAR=1.641500
New Load.258406445_1 Bus1=258406445.1 Phases=1 kV=7.1996 kW=2.590374 yearly=YearlyA daily=DailyA kVAR=1.025018
New Load.258406445_2 Bus1=258406445.2 Phases=1 kV=7.1996 kW=2.580176 yearly=YearlyB daily=DailyB kVAR=1.094333
New Load.258406445_3 Bus1=258406445.3 Phases=1 kV=7.1996 kW=2.273630 yearly=YearlyC daily=DailyC kVAR=0.753589
New Load.258443714_2 Bus1=258443714.2 Phases=1 kV=7.1996 kW=3.870264 yearly=YearlyB daily=DailyB kVAR=1.641500
New Load.260662911_2 Bus1=260662911.2 Phases=1 kV=7.1996 kW=6.450439 yearly=YearlyB daily=DailyB kVAR=2.735834
New Load.258425162_2 Bus1=258425162.2 Phases=1 kV=7.1996 kW=2.580176 yearly=YearlyB daily=DailyB kVAR=1.094333
New Load.258425528_3 Bus1=258425528.3 Phases=1 kV=7.1996 kW=2.273630 yearly=YearlyC daily=DailyC kVAR=0.753589
New Load.258443961_3 Bus1=258443961.3 Phases=1 kV=7.1996 kW=5.684074 yearly=YearlyC daily=DailyC kVAR=1.883973
New Load.260664761_3 Bus1=260664761.3 Phases=1 kV=7.1996 kW=5.684074 yearly=YearlyC daily=DailyC kVAR=1.883973
New Load.258443604_3 Bus1=258443604.3 Phases=1 kV=7.1996 kW=5.684074 yearly=YearlyC daily=DailyC kVAR=1.883973
New Load.258425730_2 Bus1=258425730.2 Phases=1 kV=7.1996 kW=6.450439 yearly=YearlyB daily=DailyB kVAR=2.735834
New Load.258425323_2 Bus1=258425323.2 Phases=1 kV=7.1996 kW=1.290088 yearly=YearlyB daily=DailyB kVAR=0.547167
New Load.258424949_1 Bus1=258424949.1 Phases=1 kV=7.1996 kW=6.475936 yearly=YearlyA daily=DailyA kVAR=2.562546
New Load.258426054_2 Bus1=258426054.2 Phases=1 kV=7.1996 kW=6.450439 yearly=YearlyB daily=DailyB kVAR=2.735834
New Load.258406615_1 Bus1=258406615.1 Phases=1 kV=7.1996 kW=6.475936 yearly=YearlyA daily=DailyA kVAR=2.562546
New Load.259589131_1 Bus1=259589131.1 Phases=1 kV=7.1996 kW=12.951872 yearly=YearlyA daily=DailyA kVAR=5.125092
New Load.259589131_2 Bus1=259589131.2 Phases=1 kV=7.1996 kW=12.900879 yearly=YearlyB daily=DailyB kVAR=5.471667
New Load.259589131_3 Bus1=259589131.3 Phases=1 kV=7.1996 kW=11.368148 yearly=YearlyC daily=DailyC kVAR=3.767947
New Load.258406555_3 Bus1=258406555.3 Phases=1 kV=7.1996 kW=5.684074 yearly=YearlyC daily=DailyC kVAR=1.883973
New Load.258425772_2 Bus1=258425772.2 Phases=1 kV=7.1996 kW=2.580176 yearly=YearlyB daily=DailyB kVAR=1.094333
New Load.258444259_2 Bus1=258444259.2 Phases=1 kV=7.1996 kW=6.450439 yearly=YearlyB daily=DailyB kVAR=2.735834
New Load.258444174_3 Bus1=258444174.3 Phases=1 kV=7.1996 kW=5.684074 yearly=YearlyC daily=DailyC kVAR=1.883973
New Load.258406535_3 Bus1=258406535.3 Phases=1 kV=7.1996 kW=11.368148 yearly=YearlyC daily=DailyC kVAR=3.767947
New Load.258426141_1 Bus1=258426141.1 Phases=1 kV=7.1996 kW=2.590374 yearly=YearlyA daily=DailyA kVAR=1.025018
New Load.258426141_2 Bus1=258426141.2 Phases=1 kV=7.1996 kW=2.580176 yearly=YearlyB daily=DailyB kVAR=1.094333
New Load.258426141_3 Bus1=258426141.3 Phases=1 kV=7.1996 kW=2.273630 yearly=YearlyC daily=DailyC kVAR=0.753589
New Load.258425912_3 Bus1=258425912.3 Phases=1 kV=7.1996 kW=1.136815 yearly=YearlyC daily=DailyC kVAR=0.376795
New Load.258444026_3 Bus1=258444026.3 Phases=1 kV=7.1996 kW=5.684074 yearly=YearlyC daily=DailyC kVAR=1.883973
New Load.258406383_3 Bus1=258406383.3 Phases=1 kV=7.1996 kW=5.684074 yearly=YearlyC daily=DailyC kVAR=1.883973
New Load.258405873_1 Bus1=258405873.1 Phases=1 kV=7.1996 kW=6.475936 yearly=YearlyA daily=DailyA kVAR=2.562546
New Load.258425117_2 Bus1=258425117.2 Phases=1 kV=7.1996 kW=6.450439 yearly=YearlyB daily=DailyB kVAR=2.735834
New Load.258443643_1 Bus1=258443643.1 Phases=1 kV=7.1996 kW=2.590374 yearly=YearlyA daily=DailyA kVAR=1.025018
New Load.258443643_2 Bus1=258443643.2 Phases=1 kV=7.1996 kW=2.580176 yearly=YearlyB daily=DailyB kVAR=1.094333
New Load.258443643_3 Bus1=258443643.3 Phases=1 kV=7.1996 kW=2.273630 yearly=YearlyC daily=DailyC kVAR=0.753589
New Load.258406605_1 Bus1=258406605.1 Phases=1 kV=7.1996 kW=6.475936 yearly=YearlyA daily=DailyA kVAR=2.562546
New Load.258443519_1 Bus1=258443519.1 Phases=1 kV=7.1996 kW=6.475936 yearly=YearlyA daily=DailyA kVAR=2.562546
New Load.426195246_3 Bus1=426195246.3 Phases=1 kV=7.1996 kW=3.410444 yearly=YearlyC daily=DailyC kVAR=1.130384
New Load.258444244_2 Bus1=258444244.2 Phases=1 kV=7.1996 kW=6.450439 yearly=YearlyB daily=DailyB kVAR=2.735834
New Load.258425232_2 Bus1=258425232.2 Phases=1 kV=7.1996 kW=25.801758 yearly=YearlyB daily=DailyB kVAR=10.943334
New Load.258425962_2 Bus1=258425962.2 Phases=1 kV=7.1996 kW=6.450439 yearly=YearlyB daily=DailyB kVAR=2.735834
New Load.260664746_1 Bus1=260664746.1 Phases=1 kV=7.1996 kW=19.427809 yearly=YearlyA daily=DailyA kVAR=7.687639
New Load.258425152_2 Bus1=258425152.2 Phases=1 kV=7.1996 kW=6.450439 yearly=YearlyB daily=DailyB kVAR=2.735834
New Load.258425625_1 Bus1=258425625.1 Phases=1 kV=7.1996 kW=6.475936 yearly=YearlyA daily=DailyA kVAR=2.562546
New Load.258443985_3 Bus1=258443985.3 Phases=1 kV=7.1996 kW=5.684074 yearly=YearlyC daily=DailyC kVAR=1.883973
New Load.258405657_1 Bus1=258405657.1 Phases=1 kV=7.1996 kW=6.475936 yearly=YearlyA daily=DailyA kVAR=2.562546
New Load.258444125_2 Bus1=258444125.2 Phases=1 kV=7.1996 kW=12.900879 yearly=YearlyB daily=DailyB kVAR=5.471667
New Load.258444125_3 Bus1=258444125.3 Phases=1 kV=7.1996 kW=11.368148 yearly=YearlyC daily=DailyC kVAR=3.767947
New Load.260663805_1 Bus1=260663805.1 Phases=1 kV=7.1996 kW=6.475936 yearly=YearlyA daily=DailyA kVAR=2.562546
New Load.258426106_2 Bus1=258426106.2 Phases=1 kV=7.1996 kW=9.675659 yearly=YearlyB daily=DailyB kVAR=4.103750
New Load.258426106_3 Bus1=258426106.3 Phases=1 kV=7.1996 kW=8.526111 yearly=YearlyC daily=DailyC kVAR=2.825960
New Load.258425871_1 Bus1=258425871.1 Phases=1 kV=7.1996 kW=12.951872 yearly=YearlyA daily=DailyA kVAR=5.125092
New Load.261061098_1 Bus1=261061098.1 Phases=1 kV=7.1996 kW=12.951872 yearly=YearlyA daily=DailyA kVAR=5.125092
New Load.258406218_3 Bus1=258406218.3 Phases=1 kV=7.1996 kW=3.410444 yearly=YearlyC daily=DailyC kVAR=1.130384
New Load.258425802_3 Bus1=258425802.3 Phases=1 kV=7.1996 kW=11.368148 yearly=YearlyC daily=DailyC kVAR=3.767947
New Load.258443469_2 Bus1=258443469.2 Phases=1 kV=7.1996 kW=2.580176 yearly=YearlyB daily=DailyB kVAR=1.094333
New Load.258425473_3 Bus1=258425473.3 Phases=1 kV=7.1996 kW=5.684074 yearly=YearlyC daily=DailyC kVAR=1.883973
New Load.260981164_3 Bus1=260981164.3 Phases=1 kV=7.1996 kW=17.052221 yearly=YearlyC daily=DailyC kVAR=5.651920
New Load.258425137_1 Bus1=258425137.1 Phases=1 kV=7.1996 kW=2.590374 yearly=YearlyA daily=DailyA kVAR=1.025018
New Load.258425137_2 Bus1=258425137.2 Phases=1 kV=7.1996 kW=2.580176 yearly=YearlyB daily=DailyB kVAR=1.094333
New Load.258425137_3 Bus1=258425137.3 Phases=1 kV=7.1996 kW=2.273630 yearly=YearlyC daily=DailyC kVAR=0.753589
New Load.615922898_2 Bus1=615922898.2 Phases=1 kV=7.1996 kW=9.675659 yearly=YearlyB daily=DailyB kVAR=4.103750
New Load.258444036_3 Bus1=258444036.3 Phases=1 kV=7.1996 kW=11.368148 yearly=YearlyC daily=DailyC kVAR=3.767947
New Load.258405652_1 Bus1=258405652.1 Phases=1 kV=7.1996 kW=12.951872 yearly=YearlyA daily=DailyA kVAR=5.125092
New Load.258443684_2 Bus1=258443684.2 Phases=1 kV=7.1996 kW=6.450439 yearly=YearlyB daily=DailyB kVAR=2.735834
New Load.258443971_3 Bus1=258443971.3 Phases=1 kV=7.1996 kW=5.684074 yearly=YearlyC daily=DailyC kVAR=1.883973
...
